.model 1N4148 D
+ IS=5.48945e-09      RS=1.13897          N=1.88799           EG=1.16621
+ XTI=0.05            BV=100              IBV=0.0001          CJO=6.19161e-13
+ VJ=0.4              M=0.0531837         FC=0.5              TT=5.1937e-09
+ KF=0                AF=1
